6
co2.2mol.x-trans_relax_scan.1.bgf
C         18.50535       20.02533       20.12157
O         18.07335       19.93683       21.19247
O         18.90965       20.11583       19.03507
C         21.49495       19.97473       19.87827
O         21.08605       19.89193       20.96407
O         21.93065       20.05533       18.80857
