6
co2.2mol.x-trans_relax_scan.11.bgf
C         18.01670       20.02510       20.25650
O         17.41130       19.95210       21.24300
O         18.61930       20.09840       19.26630
C         21.98330       19.97490       19.74350
O         21.38070       19.90160       20.73370
O         22.58870       20.04790       18.75700
