6
co2.2mol.x-trans_relax_scan.18.bgf
C         17.67790       20.02420       20.36010
O         16.99150       19.95780       21.29310
O         18.36240       20.09040       19.42480
C         22.32210       19.97580       19.63990
O         21.63760       19.90960       20.57520
O         23.00850       20.04220       18.70690
