6
co2.2mol.x-trans_relax_scan.20.bgf
C         17.57910       20.02530       20.37540
O         16.89260       19.95880       21.30840
O         18.26360       20.09150       19.44010
C         22.42090       19.97470       19.62460
O         21.73640       19.90850       20.55990
O         23.10740       20.04120       18.69160
