6
co2.2mol.x-trans_relax_scan.16.bgf
C         17.77670       20.02320       20.34470
O         17.09030       19.95670       21.27780
O         18.46120       20.08940       19.40950
C         22.22330       19.97680       19.65530
O         21.53880       19.91060       20.59050
O         22.90970       20.04330       18.72220
