6
co2.2mol.x-trans_relax_scan.7.bgf
C         18.21110       20.02560       20.19790
O         17.68390       19.94700       21.22720
O         18.73320       20.10490       19.16270
C         21.78890       19.97440       19.80210
O         21.26680       19.89510       20.83730
O         22.31610       20.05300       18.77280
